30
Coordinates from ORCA-job opt_0
  C   3.31399876793954      2.56910223515962      0.62506864587102
  C   1.99948858808729      2.52334420827046      1.09713718590418
  C   1.24917611774250      1.36670863567919      1.00063548346976
  C   1.78218975727658      0.20124440455941      0.41946655060451
  C   3.11923011725740      0.24639154568973     -0.07530521645980
  C   3.85805627492065      1.43551647022308      0.05166547570322
  C   3.73337872755243     -0.94244823759304     -0.68547674026406
  O   3.38941170700490     -2.09809376416796     -0.45414149784425
  O   4.75033109985562     -0.76416496422800     -1.56312170593928
  N   1.05337463653167     -0.96595644415168      0.36185873653754
  C   -0.33209741316913     -1.12252524402161      0.42257514130031
  C   -0.83639949608260     -2.33739536526272      0.91336743159635
  C   -2.20226519100257     -2.56854746639273      0.95071479082691
  C   -3.10273290407016     -1.59811166122831      0.51504609214682
  C   -2.59520009384659     -0.40241888688130      0.01548881123111
  C   -1.22558709502468     -0.15696074921254     -0.04855525583363
  C   -3.51112502768797      0.66327654764964     -0.50635473100245
  F   -3.30984533780440      1.85721936950450      0.11430726108309
  F   -3.31706879275055      0.89479686860588     -1.83390647139715
  F   -4.81756963673247      0.35913107236458     -0.35201791558802
  H   3.90821740480512      3.47120377886942      0.72428039226069
  H   1.56182072291959      3.39676426149516      1.57226499902680
  H   0.24929955367172      1.34480911780990      1.41891289595011
  H   4.89605201093248      1.46283048254714     -0.26879177523498
  H   4.86143704069860      0.16963375344263     -1.80016330199994
  H   1.59965035230851     -1.81110686438350      0.23612952836562
  H   -0.14138226233135     -3.09563390479828      1.26443474537291
  H   -2.57428659232004     -3.51288434068144      1.33602587142613
  H   -4.17081742009365     -1.77670839584103      0.55996509581475
  H   -0.86073561658846      0.76598353697379     -0.48751052292828
