30
Coordinates from ORCA-job opt_4
  C   3.51079709883761      2.54167719447414      0.46689412590395
  C   3.27971378773477      2.25868520088616      1.81206063146336
  C   2.52879983358667      1.14942949450885      2.17636463786375
  C   2.02026068577819      0.28431823571803      1.20520669712089
  C   2.29243103879898      0.53953415766360     -0.15465784405792
  C   3.01122699107196      1.68864195011713     -0.50508170911847
  C   1.90904817957982     -0.36884179474433     -1.26765171328529
  O   1.67552024605585      0.02342838837958     -2.39854198799766
  O   1.87943231872652     -1.69598419950351     -1.02398680090238
  N   1.27854653516509     -0.84276406826270      1.61384414307701
  C   -0.05442870819886     -1.07811619339911      1.22859047444033
  C   -0.70019910892089     -2.21255004422852      1.74343985752944
  C   -1.99650717343502     -2.51472044053435      1.35992039030130
  C   -2.67787340966036     -1.71408313846896      0.44317781526738
  C   -2.03196210765497     -0.58863018639865     -0.05448947033245
  C   -0.73846469014125     -0.24983908722999      0.33940978206213
  C   -2.71508788883269      0.32774669230397     -1.02352218953204
  F   -3.87310455645369     -0.17669783266818     -1.50055684413342
  F   -3.01537883607905      1.53140238868443     -0.46077914841269
  F   -1.93103199035934      0.60351588278549     -2.09995539227973
  H   4.08408607732297      3.41698354095025      0.17879764885885
  H   3.66925307904182      2.91674574398886      2.58338903436231
  H   2.31562007663668      0.94719960100351      3.22268223357909
  H   3.20329389299181      1.88041891862805     -1.55612432358091
  H   2.05029123033932     -1.87410219950164     -0.07909088539048
  H   1.47287392157517     -1.12737883377883      2.56701090434349
  H   -0.17131183826126     -2.85405677329474      2.44361825942312
  H   -2.48176803004069     -3.39582628409824      1.76845476314971
  H   -3.68425609776515     -1.96622448343307      0.12961518153164
  H   -0.28082055744002      0.65608816945275     -0.04503827125434
